Circuit: * C:\Users\almos\OneDrive - North Dakota University System\Documents\DSP\Audio Board\Input Filter\Draft4.asc

WARNING: Less than two connections to node SW1.  This node is used by B1.
WARNING: Less than two connections to node SW2.  This node is used by B2.
WARNING: Less than two connections to node SW3.  This node is used by B3.
Direct Newton iteration for .op point succeeded.

Date: Thu Apr 15 08:49:18 2021
Total elapsed time: 4.084 seconds.

tnom = 27
temp = 27
method = modified trap
totiter = 1812337
traniter = 1812333
tranpoints = 740131
accept = 587820
rejected = 152311
matrix size = 12
fillins = 0
solver = Normal
Matrix Compiler1: 212 bytes object code size  0.1/0.1/[0.0]
Matrix Compiler2: off  [0.1]/0.1/0.1

