Circuit: * C:\Users\almos\OneDrive - North Dakota University System\Documents\DSP\Audio Board\Input Filter\Draft2.asc

Ignoring empty pin current: Ix(u1:1)
Ignoring empty pin current: Ix(u1:2)

Date: Sun Apr 04 14:44:38 2021
Total elapsed time: 0.112 seconds.

tnom = 27
temp = 27
method = trap
totiter = 0
traniter = 0
tranpoints = 0
accept = 0
rejected = 0
matrix size = 5
fillins = 0
solver = Normal

