Circuit: * C:\Users\almos\OneDrive - North Dakota University System\Documents\DSP\Audio Board\Input Filter\Sallen_Key_Stages.asc

Direct Newton iteration for .op point succeeded.

Date: Wed Apr 14 15:08:00 2021
Total elapsed time: 0.155 seconds.

tnom = 27
temp = 27
method = trap
totiter = 10
traniter = 0
tranpoints = 0
accept = 0
rejected = 0
matrix size = 39
fillins = 39
solver = Normal
Matrix Compiler1:     216 opcodes
Matrix Compiler2: 3.85 KB object code size
