Circuit: * C:\Users\almos\OneDrive - North Dakota University System\Documents\DSP\Audio Board\Input Filter\Unity-Gain Phase-Splitter.asc

Direct Newton iteration for .op point succeeded.

Date: Wed Apr 14 17:56:39 2021
Total elapsed time: 0.094 seconds.

tnom = 27
temp = 27
method = modified trap
totiter = 2094
traniter = 2088
tranpoints = 1045
accept = 1045
rejected = 0
matrix size = 10
fillins = 0
solver = Normal
Matrix Compiler1: 560 bytes object code size  0.1/0.1/[0.1]
Matrix Compiler2: off  [0.1]/0.1/0.1

